/*--------------------------------*- C++ -*----------------------------------*\
| =========                 |                                                 |
| \\      /  F ield         | OpenFOAM: The Open Source CFD Toolbox           |
|  \\    /   O peration     | Version:  v2306                                 |
|   \\  /    A nd           | Website:  www.openfoam.com                      |
|    \\/     M anipulation  |                                                 |
\*---------------------------------------------------------------------------*/
FoamFile
{
    version     2.0;
    format      ascii;
    class       dictionary;
    object      fvSchemes;
}
// * * * * * * * * * * * * * * * * * * * * * * * * * * * * * * * * * * * * * //

fluxScheme          Kurganov;

ddtSchemes
{
    default         Euler;
}

gradSchemes
{
    default         Gauss linear;
}

divSchemes
{
    default         Gauss linear;

    div(tauMC)      Gauss linear;
    div(phi,U)      Gauss linear;

    div((nuEff*dev2(T(grad(U))))) Gauss linear;
    div(phi,nuTilda)  Gauss limitedLinear 1;

    turbulence      Gauss upwind;
    div(phi,k)      $turbulence;
    div(phi,omega)  $turbulence;
}

laplacianSchemes
{
    default         Gauss linear corrected;
}

interpolationSchemes
{
    default         linear;

    reconstruct(rho) vanAlbada;
    reconstruct(U)  vanAlbadaV;
    reconstruct(T)  vanAlbada;
}



snGradSchemes
{
    default         corrected;
}


wallDist
{
    method          meshWave;
}



// ************************************************************************* //
